Version 4
SHEET 1 880 680
WIRE 112 112 48 112
WIRE 48 128 48 112
WIRE 544 128 512 128
WIRE 576 128 544 128
WIRE 112 144 112 112
WIRE 144 144 112 144
WIRE 176 144 144 144
WIRE 336 144 272 144
WIRE 400 144 336 144
WIRE 512 144 512 128
WIRE 512 144 496 144
WIRE 176 176 112 176
WIRE 400 176 272 176
WIRE 560 176 496 176
WIRE 560 208 560 176
WIRE 576 208 560 208
WIRE 48 224 48 208
WIRE 48 224 -16 224
WIRE 112 224 112 176
WIRE 112 224 48 224
WIRE -16 240 -16 224
FLAG -16 240 0
FLAG 144 144 n1
FLAG 336 144 n2
FLAG 544 128 n3
SYMBOL voltage 48 112 R0
WINDOW 123 0 0 Left 0
WINDOW 39 -145 41 Left 2
WINDOW 3 -340 4 Left 2
SYMATTR SpiceLine Rser=50
SYMATTR InstName V1
SYMATTR Value PULSE(0 2 0 1p 1p 100n 0 1)
SYMBOL tline 224 160 R0
SYMATTR InstName T1
SYMATTR Value Td=250n Z0=50
SYMBOL tline 448 160 R0
SYMATTR InstName T2
SYMATTR Value Td=250n Z0=100
TEXT 16 256 Left 2 !.tran 10000n
TEXT -240 232 Left 2 !.PROBE V(n1)
